Circuit: * C:\Users\hamza\OneDrive\Documents\LTspiceXVII\vlsi_lab\Draft1.asc

.OP point found by inspection.

Date: Wed Jun 26 05:22:25 2024
Total elapsed time: 0.531 seconds.

tnom = 27
temp = 27
method = modified trap
totiter = 54630
traniter = 54630
tranpoints = 27316
accept = 23121
rejected = 4195
matrix size = 2
fillins = 0
solver = Normal
Matrix Compiler1: 36 bytes object code size  0.0/0.0/[0.0]
Matrix Compiler2: 96 bytes object code size  0.0/0.0/[0.0]

