Circuit: .global gnd vdd

Ignoring BSIM parameter XL
Ignoring BSIM parameter XW
Ignoring BSIM parameter XL
Ignoring BSIM parameter XW
Vb: Removing PWL point (2e-008,0)
Vb: Removing PWL point (1.3e-007,5)
Warning: Pd = 0 is less than W.
Warning: Ps = 0 is less than W.
Warning: Pd = 0 is less than W.
Warning: Ps = 0 is less than W.
Direct Newton iteration for .op point succeeded.

Multiply defined .measure result:  tf   

  Each .measure statement needs a unique result name.

Date: Wed Jun 26 05:38:04 2024
Total elapsed time: 0.027 seconds.

tnom = 27
temp = 27
method = modified trap
totiter = 2402
traniter = 2394
tranpoints = 1072
accept = 1072
rejected = 0
matrix size = 8
fillins = 0
solver = Normal
Matrix Compiler1: 300 bytes object code size  0.1/0.1/[0.0]
Matrix Compiler2: 636 bytes object code size  0.1/0.1/[0.0]

