Circuit: *

Ignoring BSIM parameter XL
Ignoring BSIM parameter XW
Ignoring BSIM parameter XL
Ignoring BSIM parameter XW
Warning: Pd = 0 is less than W.
Warning: Ps = 0 is less than W.
Warning: Pd = 0 is less than W.
Warning: Ps = 0 is less than W.
Direct Newton iteration for .op point succeeded.

Multiply defined .measure result:  tf   

  Each .measure statement needs a unique result name.

Date: Tue Jun 25 16:12:54 2024
Total elapsed time: 0.068 seconds.

tnom = 27
temp = 27
method = modified trap
totiter = 2170
traniter = 2159
tranpoints = 1073
accept = 1072
rejected = 1
matrix size = 10
fillins = 0
solver = Normal
Matrix Compiler1: 364 bytes object code size  0.3/0.1/[0.1]
Matrix Compiler2: 762 bytes object code size  0.1/0.2/[0.1]

